Version 4
SHEET 1 1940 1236
WIRE 240 80 32 80
WIRE 384 80 240 80
WIRE 416 80 384 80
WIRE 576 80 512 80
WIRE 656 80 576 80
WIRE 1216 80 1216 16
WIRE 240 96 240 80
WIRE 384 96 384 80
WIRE 32 128 32 80
WIRE 656 128 656 80
WIRE 1056 128 912 128
WIRE 1152 128 1136 128
WIRE 384 176 384 160
WIRE 384 176 240 176
WIRE 464 176 464 160
WIRE 464 176 384 176
WIRE 912 176 912 128
WIRE 464 208 464 176
WIRE 1216 224 1216 176
WIRE 464 240 464 208
WIRE 912 304 912 256
WIRE 1216 384 1216 304
WIRE 32 432 32 208
WIRE 576 432 576 192
WIRE 576 432 32 432
WIRE 656 432 656 208
WIRE 656 432 576 432
WIRE 32 464 32 432
FLAG 32 464 0
FLAG 576 80 out
FLAG 464 208 gate
FLAG 32 80 Vin
FLAG 1216 384 0
FLAG 1216 16 gate
FLAG 912 304 0
SYMBOL voltage 32 112 R0
WINDOW 123 0 0 Left 0
WINDOW 39 0 0 Left 0
WINDOW 3 30 102 Right 2
SYMATTR Value PULSE(0 24 0 1u 1u 500m)
SYMATTR InstName V1
SYMBOL res 640 112 R0
WINDOW 3 49 75 VRight 2
SYMATTR Value 4.7
SYMATTR InstName R_load
SYMBOL zener 400 160 R180
WINDOW 0 24 64 Left 2
WINDOW 3 24 0 Left 2
SYMATTR InstName D1
SYMATTR Value EDZV18B
SYMBOL cap 560 128 R0
SYMATTR InstName C1
SYMATTR Value 100µF
SYMBOL voltage 912 160 R0
WINDOW 3 -65 259 VLeft 2
WINDOW 123 0 0 Left 0
WINDOW 39 0 0 Left 0
SYMATTR Value PULSE(5 0 200m 1u 1u 200m)
SYMATTR InstName 5V
SYMBOL npn 1152 80 R0
SYMATTR InstName Q1
SYMATTR Value 2N2222
SYMBOL res 256 192 R180
WINDOW 0 36 76 Left 2
WINDOW 3 36 40 Left 2
SYMATTR InstName R_pullup
SYMATTR Value 1k
SYMBOL res 1152 144 M270
WINDOW 0 32 56 VTop 2
WINDOW 3 0 56 VBottom 2
SYMATTR InstName R_gate2
SYMATTR Value 6k8
SYMBOL ZZZ\\MOS\\IRF\\PMOSFET\\irf4905 464 80 R270
SYMATTR InstName U2
SYMBOL res 1232 320 R180
WINDOW 0 36 76 Left 2
WINDOW 3 36 40 Left 2
SYMATTR InstName R_pullup1
SYMATTR Value 1k
TEXT -80 -24 Left 2 !.tran 0 500m 0 startup
