Version 4
SHEET 1 900 680
WIRE 80 80 -64 80
WIRE 256 80 80 80
WIRE 464 80 256 80
WIRE 896 80 720 80
WIRE -64 128 -64 80
WIRE 256 128 256 80
WIRE 80 144 80 80
WIRE 80 240 80 224
WIRE 80 256 80 240
WIRE -64 304 -64 208
WIRE 64 304 -64 304
WIRE 176 304 160 304
WIRE 256 304 256 208
WIRE 256 304 176 304
WIRE 592 304 592 176
WIRE 592 304 256 304
WIRE -64 336 -64 304
WIRE -64 480 -64 464
WIRE -64 656 -64 560
FLAG -64 336 0
FLAG 176 304 drain
FLAG -64 464 v_s
FLAG -64 656 0
FLAG 80 240 gate
SYMBOL nmos 160 256 R90
SYMATTR InstName M1
SYMATTR Value IRF9410
SYMBOL voltage -64 112 R0
WINDOW 123 0 0 Left 0
WINDOW 39 0 0 Left 0
WINDOW 3 -189 92 Left 2
SYMATTR InstName V1
SYMATTR Value PULSE(10 4)
SYMBOL res 240 112 R0
SYMATTR InstName R_load
SYMATTR Value 10
SYMATTR SpiceLine tol=0.0001 pwr=100w
SYMBOL res 64 128 R0
SYMATTR InstName R_gate
SYMATTR Value 50
SYMBOL voltage -64 464 R0
WINDOW 123 0 0 Left 0
WINDOW 39 0 0 Left 0
SYMATTR InstName V2
SYMATTR Value PULSE(0 4 300m 1u 1u 200m 500m)
SYMBOL ZZZ\\VolReg\\7805 592 80 R0
SYMATTR InstName U1
TEXT -64 48 Left 2 !.tran 0 500m 200m 20u
