Version 4
SHEET 1 1940 1236
WIRE 192 80 32 80
WIRE 288 80 192 80
WIRE 320 80 288 80
WIRE 480 80 416 80
WIRE 560 80 480 80
WIRE 192 96 192 80
WIRE 288 96 288 80
WIRE 992 112 992 48
WIRE 32 128 32 80
WIRE 480 128 480 80
WIRE 560 128 560 80
WIRE 832 160 768 160
WIRE 928 160 912 160
WIRE 288 176 288 160
WIRE 288 176 192 176
WIRE 368 176 368 160
WIRE 368 176 288 176
WIRE 368 208 368 176
WIRE 768 208 768 160
WIRE 368 240 368 208
WIRE 992 256 992 208
WIRE 768 336 768 288
WIRE 992 416 992 336
WIRE 32 432 32 208
WIRE 480 432 480 192
WIRE 480 432 32 432
WIRE 560 432 560 208
WIRE 560 432 480 432
WIRE 32 464 32 432
FLAG 32 464 0
FLAG 480 80 out
FLAG 368 208 gate
FLAG 32 80 Vin
FLAG 992 416 0
FLAG 992 48 gate
FLAG 768 336 0
SYMBOL voltage 32 112 R0
WINDOW 123 0 0 Left 0
WINDOW 39 0 0 Left 0
WINDOW 3 -56 302 VLeft 2
SYMATTR Value PULSE(0 24 0 1u 1u 500m)
SYMATTR InstName V1
SYMBOL res 544 112 R0
WINDOW 3 49 75 VRight 2
SYMATTR Value 4.7
SYMATTR InstName R_load
SYMBOL zener 304 160 R180
WINDOW 0 24 64 Left 2
WINDOW 3 -18 -37 Left 2
SYMATTR InstName D1
SYMATTR Value EDZV18B
SYMBOL cap 464 128 R0
SYMATTR InstName C1
SYMATTR Value 100µF
SYMBOL voltage 768 192 R0
WINDOW 3 -65 259 VLeft 2
WINDOW 123 0 0 Left 0
WINDOW 39 0 0 Left 0
SYMATTR Value PULSE(5 0 200m 1u 1u 100m)
SYMATTR InstName 5V
SYMBOL npn 928 112 R0
SYMATTR InstName Q1
SYMATTR Value 2N2222
SYMBOL res 208 192 R180
WINDOW 0 49 -1 VRight 2
WINDOW 3 -10 36 VRight 2
SYMATTR InstName R_pullup
SYMATTR Value 10k
SYMBOL res 928 176 M270
WINDOW 0 32 56 VTop 2
WINDOW 3 0 56 VBottom 2
SYMATTR InstName R_gate
SYMATTR Value 500
SYMBOL ZZZ\\MOS\\IRF\\PMOSFET\\irf4905 368 80 R270
WINDOW 0 -71 35 VRight 2
WINDOW 3 47 -52 VRight 2
SYMATTR InstName U2
SYMBOL res 976 240 R0
SYMATTR InstName R_1
SYMATTR Value 4k7
TEXT 24 -8 Left 2 !.tran 0 500m 0 startup
