Version 4
SHEET 1 1940 1236
WIRE 1216 64 1216 16
WIRE -144 80 -288 80
WIRE 48 80 -48 80
WIRE 160 80 48 80
WIRE 240 80 160 80
WIRE 384 80 240 80
WIRE 416 80 384 80
WIRE 576 80 512 80
WIRE 656 80 576 80
WIRE 240 96 240 80
WIRE 384 96 384 80
WIRE 48 112 48 80
WIRE -288 128 -288 80
WIRE 656 128 656 80
WIRE -96 160 -96 144
WIRE 384 176 384 160
WIRE 384 176 240 176
WIRE 464 176 464 160
WIRE 464 176 384 176
WIRE 464 208 464 176
WIRE 1216 208 1216 144
WIRE -96 224 -96 160
WIRE 48 224 48 176
WIRE 48 224 -96 224
WIRE 464 240 464 208
WIRE -96 256 -96 224
WIRE 1056 256 912 256
WIRE 1152 256 1136 256
WIRE 1216 400 1216 304
WIRE -288 432 -288 208
WIRE -96 432 -96 336
WIRE -96 432 -288 432
WIRE 576 432 576 192
WIRE 576 432 -96 432
WIRE 656 432 656 208
WIRE 656 432 576 432
WIRE -288 464 -288 432
WIRE 496 624 -32 624
WIRE 560 624 496 624
WIRE -288 640 -288 624
WIRE -288 672 -288 640
WIRE -32 672 -32 624
WIRE 496 672 496 624
WIRE 464 688 432 688
WIRE 560 704 528 704
WIRE 672 704 560 704
WIRE 112 720 96 720
WIRE 208 720 192 720
WIRE 416 720 288 720
WIRE 464 720 416 720
WIRE 192 736 192 720
WIRE 416 736 416 720
WIRE -288 832 -288 752
WIRE -32 832 -32 752
WIRE -32 832 -288 832
WIRE 192 832 192 800
WIRE 192 832 -32 832
WIRE 304 832 304 816
WIRE 304 832 192 832
WIRE 416 832 416 816
WIRE 416 832 304 832
WIRE 496 832 496 736
WIRE 496 832 416 832
WIRE -288 864 -288 832
WIRE 672 864 672 704
WIRE 704 864 672 864
WIRE 704 896 672 896
WIRE 496 976 400 976
WIRE 560 976 496 976
WIRE 496 1024 496 976
WIRE 80 1040 64 1040
WIRE 288 1040 160 1040
WIRE 464 1040 288 1040
WIRE 288 1056 288 1040
WIRE 560 1056 528 1056
WIRE 672 1056 672 896
WIRE 672 1056 560 1056
WIRE 464 1072 432 1072
WIRE 176 1184 176 1136
WIRE 288 1184 288 1136
WIRE 288 1184 176 1184
WIRE 496 1184 496 1088
WIRE 496 1184 288 1184
WIRE 496 1216 496 1184
FLAG -288 464 0
FLAG 576 80 out
FLAG 464 208 gate
FLAG -288 80 Vin
FLAG 160 80 Vpos
FLAG -288 864 0
FLAG -288 640 1_2ref
FLAG 432 688 1_2ref
FLAG 96 720 Vpos
FLAG 672 704 UVLO
FLAG 432 1072 1_2ref
FLAG 64 1040 Vpos
FLAG 672 1056 OVLO
FLAG -32 624 5V
FLAG 400 976 5V
FLAG 496 1216 0
FLAG 1216 400 0
FLAG 816 880 protection
FLAG 912 256 protection
FLAG 1216 16 gate
SYMBOL voltage -288 112 R0
WINDOW 123 0 0 Left 0
WINDOW 39 0 0 Left 0
WINDOW 3 30 102 Right 2
SYMATTR Value PULSE(5 30 0.5 1u 1u 100m 110m)
SYMATTR InstName V1
SYMBOL res 640 112 R0
WINDOW 3 49 75 VRight 2
SYMATTR Value R=limit(0.36, V(vin)**2/100, 1k)
SYMATTR InstName R_load
SYMBOL zener 400 160 R180
WINDOW 0 24 64 Left 2
WINDOW 3 24 0 Left 2
SYMATTR InstName D1
SYMATTR Value EDZV18B
SYMBOL cap 560 128 R0
SYMATTR InstName C1
SYMATTR Value 100µF
SYMBOL res -112 240 R0
SYMATTR InstName R1
SYMATTR Value 50
SYMBOL zener 64 176 R180
WINDOW 0 24 64 Left 2
WINDOW 3 24 0 Left 2
SYMATTR InstName D2
SYMATTR Value EDZV18B
SYMBOL voltage -288 656 R0
WINDOW 123 0 0 Left 0
WINDOW 39 0 0 Left 0
SYMATTR InstName 1_2ref
SYMATTR Value 1.2
SYMBOL voltage -32 656 R0
SYMATTR InstName 5V
SYMATTR Value 5V
SYMBOL ZZZ\\Comparator\\lm393 496 704 R0
SYMATTR InstName U3
SYMBOL res 304 704 R90
WINDOW 0 0 56 VBottom 2
WINDOW 3 32 56 VTop 2
SYMATTR InstName R3
SYMATTR Value 10k
SYMBOL res 432 832 R180
WINDOW 0 -35 67 Left 2
WINDOW 3 -34 31 Left 2
SYMATTR InstName R4
SYMATTR Value 2k5
SYMBOL zener 208 800 R180
WINDOW 0 41 8 Left 2
WINDOW 3 -87 -58 Left 2
SYMATTR InstName D4
SYMATTR Value BZX84C13VLY
SYMBOL res 544 608 R0
SYMATTR InstName R5
SYMATTR Value 10k
SYMBOL res 208 704 R90
WINDOW 0 0 56 VBottom 2
WINDOW 3 32 56 VTop 2
SYMATTR InstName R6
SYMATTR Value 50
SYMBOL cap 288 752 R0
SYMATTR InstName C2
SYMATTR Value 0.1µF
SYMBOL ZZZ\\Comparator\\lm393 496 1056 R0
SYMATTR InstName U4
SYMBOL res 176 1024 R90
WINDOW 0 0 56 VBottom 2
WINDOW 3 32 56 VTop 2
SYMATTR InstName R7
SYMATTR Value 27k
SYMBOL res 304 1152 R180
WINDOW 0 -35 67 Left 2
WINDOW 3 -34 31 Left 2
SYMATTR InstName R8
SYMATTR Value 1k
SYMBOL res 544 960 R0
SYMATTR InstName R9
SYMATTR Value 10k
SYMBOL cap 160 1072 R0
SYMATTR InstName C3
SYMATTR Value 1µF
SYMBOL ZZZ\\LOGIC\\74HC\\74hc08 752 816 R0
SYMATTR InstName U5
SYMBOL npn 1152 208 R0
SYMATTR InstName Q1
SYMATTR Value 2N2222
SYMBOL res 256 192 R180
WINDOW 0 36 76 Left 2
WINDOW 3 36 40 Left 2
SYMATTR InstName R_pullup
SYMATTR Value 1k
SYMBOL res 1152 272 M270
WINDOW 0 32 56 VTop 2
WINDOW 3 0 56 VBottom 2
SYMATTR InstName R_gate2
SYMATTR Value 1k
SYMBOL res 1200 48 R0
SYMATTR InstName R2
SYMATTR Value 250
SYMBOL ZZZ\\MOS\\IRF\\PMOSFET\\irf4905 -96 80 M270
SYMATTR InstName U1
SYMBOL ZZZ\\MOS\\IRF\\PMOSFET\\irf4905 464 80 R270
SYMATTR InstName U2
TEXT -80 -24 Left 2 !.tran 0 2 0 startup
