Version 4
SHEET 1 2228 1572
WIRE -1552 384 -1568 384
WIRE -1520 384 -1552 384
WIRE -1200 384 -1440 384
WIRE -1104 384 -1200 384
WIRE -864 384 -1104 384
WIRE -768 384 -864 384
WIRE -592 384 -768 384
WIRE -1104 400 -1104 384
WIRE -1200 416 -1200 384
WIRE -1568 448 -1568 384
WIRE -864 448 -864 384
WIRE -592 464 -592 384
WIRE -768 480 -768 384
WIRE -1104 496 -1104 480
WIRE -928 496 -1104 496
WIRE -1104 512 -1104 496
WIRE -1200 544 -1200 496
WIRE -1136 544 -1200 544
WIRE -816 544 -864 544
WIRE -1200 576 -1200 544
WIRE -864 576 -864 544
WIRE -1568 704 -1568 528
WIRE -1280 704 -1568 704
WIRE -1200 704 -1200 656
WIRE -1200 704 -1280 704
WIRE -1104 704 -1104 576
WIRE -1104 704 -1200 704
WIRE -864 704 -864 656
WIRE -864 704 -1104 704
WIRE -768 704 -768 544
WIRE -768 704 -864 704
WIRE -592 704 -592 544
WIRE -592 704 -768 704
WIRE -1280 768 -1280 704
FLAG -1280 768 0
FLAG -1552 384 Vpos
SYMBOL voltage -1568 432 R0
WINDOW 123 0 0 Left 0
WINDOW 39 0 0 Left 0
WINDOW 3 30 102 Right 2
SYMATTR Value PULSE(15 35 100m 1u 1u 200m 500m 2)
SYMATTR InstName V1
SYMBOL ZZZ\\REF\\TL431 -1120 512 R0
SYMATTR InstName U12
SYMBOL res -1120 384 R0
SYMATTR InstName R17
SYMATTR Value 220
SYMBOL res -1216 400 R0
SYMATTR InstName R18
SYMATTR Value 12k
SYMBOL res -1216 560 R0
SYMATTR InstName R22
SYMATTR Value 1k
SYMBOL ZZZ\\FUSE\\fuse2 -1472 384 R0
SYMATTR InstName U6
SYMATTR SpiceModel F1A
SYMBOL res -608 448 R0
SYMATTR InstName R1
SYMATTR Value 1k
SYMBOL ZZZ\\SCR\\ScrA -784 480 R0
SYMATTR InstName U1
SYMBOL pnp -928 448 R0
SYMATTR InstName Q1
SYMBOL res -880 560 R0
SYMATTR InstName R2
SYMATTR Value 1k
TEXT -1568 136 Left 2 !.tran 0 200m 0 1m startup
